tools/autotest/test_mapping_opt.glm
// JSON to GLM Converter Output
// InputFile './test_mapping_opt.json'
// CreateDate '2024-12-30 07:05:33 '


// CLOCK
clock {
	timezone PST8PDT;
	starttime "2018-03-01 00:00:00 PST";
	stoptime "2018-03-03 04:15:00 PST";
}

// MODULES
module climate
{
	message_flags DEBUG|VERBOSE;
	library_path /usr/local/opt/gridlabd/4.3.11-241218-develop_tkinter_gui-darwin_23-x86_64/share/gridlabd/weather/US;
}
module powerflow
{
	message_flags DEBUG|VERBOSE;
	show_matrix_values FALSE;
	primary_voltage_ratio +60 pu;
	nominal_frequency +60 Hz;
	require_voltage_control FALSE;
	geographic_degree +0;
	fault_impedance +1e-06+0j Ohm;
	ground_impedance +1e-06+0j Ohm;
	warning_underfrequency +55 Hz;
	warning_overfrequency +65 Hz;
	warning_undervoltage +0.8 V;
	warning_overvoltage +1.2 V;
	warning_voltageangle +2;
	maximum_voltage_error +1e-06 V;
	solver_method NR;
	NR_matrix_output_interval NEVER;
	NR_matrix_output_references FALSE;
	NR_matrix_output_rhs FALSE;
	NR_island_failure_handled FALSE;
	line_capacitance TRUE;
	line_limits TRUE;
	NR_iteration_limit 500;
	NR_deltamode_iteration_limit 10;
	NR_superLU_procs 1;
	default_maximum_voltage_error +1e-06 pu;
	default_maximum_power_error +0.0001 pu;
	NR_admit_change FALSE;
	enable_subsecond_models FALSE;
	all_powerflow_delta FALSE;
	deltamode_timestep +1e+07 ns;
	current_frequency +60 Hz;
	master_frequency_update FALSE;
	enable_frequency_dependence FALSE;
	default_resistance +0.0001 Ohm;
	enable_inrush FALSE;
	low_voltage_impedance_level +0.7 pu;
	enable_mesh_fault_current FALSE;
	convergence_error_handling IGNORE;
	solver_profile_enable TRUE;
	solver_profile_filename solver_nr_profile.csv;
	solver_profile_headers_included TRUE;
	solver_headers timestamp,duration[microsec],iteration,bus_count,branch_count,error;
	solver_profile_csv FALSE;
	solver_py_config /usr/local/opt/gridlabd/4.3.11-241218-develop_tkinter_gui-darwin_23-x86_64/share/gridlabd/solver_py.conf;
	solver_dump_enable FALSE;
	violation_count 0;
	violation_active 0;
	violation_watchset ALL;
	voltage_violation_threshold +0.05 pu;
	undervoltage_violation_threshold +0 pu;
	overvoltage_violation_threshold +0 pu;
	voltage_fluctuation_threshold +0.03 pu;
	DER_violation_test ANY;
	default_continuous_rating +1000 A;
	default_emergency_rating +2000 A;
	default_violation_rating +0 A;
	market_price_name current_market.clearing_price;
	repair_time +24 h;
	wind_speed_name wind_speed;
	wind_dir_name wind_dir;
	wind_gust_name wind_gust;
	stop_on_pole_failure FALSE;
	climate_impact_zone NONE;
	building_defaults building_defaults.csv;
	building_loadshapes building_loadshapes.csv;
	building_occupancy building_occupancy.csv;
	inverter_settings inverter_settings.csv;
	NAICS_datafile naics_data_file.csv;
	ground_temperature +25 degC;
	warning_cable_temperature +80 degC;
	alert_cable_temperature +90 degC;
	ductbank_configuration_file ductbank_configurations.csv;
	air_effective_conductivity +0.2 W/K*m;
}
module generators
{
	message_flags DEBUG|VERBOSE;
	enable_subsecond_models FALSE;
	deltamode_timestep +1e+07 ns;
}
module residential
{
	message_flags DEBUG|VERBOSE;
	default_line_voltage +240+0d V;
	default_line_current +0+0j A;
	default_outdoor_temperature +74 degF;
	default_humidity +75 %;
	default_solar +0 Btu/sf;
	default_etp_iterations 100;
	ANSI_voltage_check TRUE;
	enable_subsecond_models FALSE;
	deltamode_timestep +1e+07 ns;
	all_house_delta FALSE;
	implicit_enduses DRYER|CLOTHESWASHER|WATERHEATER|RANGE|REFRIGERATOR|FREEZER|MICROWAVE|DISHWASHER|PLUGS|LIGHTS;
	implicit_enduse_source ELCAP1990;
	house_low_temperature_warning +55 degF;
	house_high_temperature_warning +95 degF;
	thermostat_control_warning +4.94066e-324;
	system_dwell_time +1 s;
	aux_cutin_temperature +10 degF;
	paneldump_filename paneldump.csv;
	paneldump_interval 0;
	paneldump_resolution +0;
	sump_humidity_factor +0.01 pu/%/h;
	sump_rainfall_factor +1 pu/in/day;
	sump_snowmelt_factor +0.1 pu/in/day;
	curtailment_enduses DISHWASHER|MICROWAVE|RANGE|EVCHARGER|CLOTHESWASHER|DRYER;
	curtailment_active FALSE;
}

// GLOBALS
// version.major is set to 4
// version.minor is set to 3
// version.patch is set to 11
// version.build is set to 241218
// version.branch is set to develop_tkinter_gui
// version is set to 4.3.11-241218-develop_tkinter_gui
// command_line is set to /usr/local/opt/gridlabd/4.3.11-241218-develop_tkinter_gui-darwin_23-x86_64/bin/gridlabd.bin -I /Users/david/Downloads/IEEE-123.glm -o 123.json
#ifndef environment
#define environment=batch
#else
#set environment=batch
#endif //environment
#ifndef quiet
global bool quiet FALSE;
#else
#set quiet=FALSE
#endif //quiet
#ifndef warn
global bool warn TRUE;
#else
#set warn=TRUE
#endif //warn
#ifndef debugger
global bool debugger FALSE;
#else
#set debugger=FALSE
#endif //debugger
#ifndef gdb
global bool gdb FALSE;
#else
#set gdb=FALSE
#endif //gdb
#ifndef debug
global bool debug FALSE;
#else
#set debug=FALSE
#endif //debug
#ifndef test
global bool test FALSE;
#else
#set test=FALSE
#endif //test
#ifndef verbose
global bool verbose FALSE;
#else
#set verbose=FALSE
#endif //verbose
#ifndef iteration_limit
global int32 iteration_limit 100;
#else
#set iteration_limit=100
#endif //iteration_limit
// workdir is set to /Users/david/GitHub/dchassin/gridlabd/tools/autotest
#ifndef dumpfile
#define dumpfile=gridlabd.json
#else
#set dumpfile=gridlabd.json
#endif //dumpfile
#ifndef savefile
#define savefile=123.json
#else
#set savefile=123.json
#endif //savefile
#ifndef dumpall
global bool dumpall FALSE;
#else
#set dumpall=FALSE
#endif //dumpall
#ifndef runchecks
global bool runchecks FALSE;
#else
#set runchecks=FALSE
#endif //runchecks
#ifndef threadcount
global int32 threadcount 1;
#else
#set threadcount=1
#endif //threadcount
#ifndef profiler
global bool profiler FALSE;
#else
#set profiler=FALSE
#endif //profiler
#ifndef pauseatexit
global bool pauseatexit FALSE;
#else
#set pauseatexit=FALSE
#endif //pauseatexit
#ifndef testoutputfile
#define testoutputfile=test.txt
#else
#set testoutputfile=test.txt
#endif //testoutputfile
#ifndef xml_encoding
global int32 xml_encoding 8;
#else
#set xml_encoding=8
#endif //xml_encoding
#ifndef clock
global timestamp clock "2018-03-01 00:00:00 PST";
#else
#set clock=2018-03-01 00:00:00 PST
#endif //clock
#ifndef starttime
global timestamp starttime "2018-03-01 00:00:00 PST";
#else
#set starttime=2018-03-01 00:00:00 PST
#endif //starttime
#ifndef stoptime
global timestamp stoptime "2018-03-03 04:15:00 PST";
#else
#set stoptime=2018-03-03 04:15:00 PST
#endif //stoptime
#ifndef double_format
global char32 double_format "%+lg";
#else
#set double_format=%+lg
#endif //double_format
#ifndef complex_format
global char256 complex_format "%+lg%+lg%c";
#else
#set complex_format=%+lg%+lg%c
#endif //complex_format
#ifndef complex_output_format
global enumeration complex_output_format DEFAULT;
#else
#set complex_output_format=DEFAULT
#endif //complex_output_format
#ifndef object_format
global char32 object_format "%s:%d";
#else
#set object_format=%s:%d
#endif //object_format
#ifndef object_scan
global char32 object_scan "%[^:]:%d";
#else
#set object_scan=%[^:]:%d
#endif //object_scan
#ifndef object_tree_balance
global bool object_tree_balance FALSE;
#else
#set object_tree_balance=FALSE
#endif //object_tree_balance
// kmlfile is set to
#ifndef kmlhost
#define kmlhost=https://code.arras.energy/develop_tkinter_gui/runtime
#else
#set kmlhost=https://code.arras.energy/develop_tkinter_gui/runtime
#endif //kmlhost
// modelname is set to /Users/david/Downloads/IEEE-123.glm
// execdir is set to /usr/local/opt/gridlabd/4.3.11-241218-develop_tkinter_gui-darwin_23-x86_64/bin
#ifndef strictnames
global bool strictnames TRUE;
#else
#set strictnames=TRUE
#endif //strictnames
#ifndef website
#define website=http://www.gridlabd.org/
#else
#set website=http://www.gridlabd.org/
#endif //website
#ifndef urlbase
#define urlbase=http://www.gridlabd.org/
#else
#set urlbase=http://www.gridlabd.org/
#endif //urlbase
#ifndef randomstate
global int32 randomstate -1379136072;
#else
#set randomstate=-1379136072
#endif //randomstate
#ifndef randomseed
global int32 randomseed -1379136072;
#else
#set randomseed=-1379136072
#endif //randomseed
// include is set to
// trace is set to
#ifndef gdb_window
global bool gdb_window FALSE;
#else
#set gdb_window=FALSE
#endif //gdb_window
#ifndef tmp
#define tmp=/Users/david/.gridlabd/tmp
#else
#set tmp=/Users/david/.gridlabd/tmp
#endif //tmp
#ifndef force_compile
global int32 force_compile 0;
#else
#set force_compile=0
#endif //force_compile
#ifndef nolocks
global bool nolocks FALSE;
#else
#set nolocks=FALSE
#endif //nolocks
#ifndef skipsafe
global bool skipsafe FALSE;
#else
#set skipsafe=FALSE
#endif //skipsafe
#ifndef dateformat
global enumeration dateformat ISO;
#else
#set dateformat=ISO
#endif //dateformat
#ifndef init_sequence
global enumeration init_sequence DEFERRED;
#else
#set init_sequence=DEFERRED
#endif //init_sequence
#ifndef minimum_timestep
global int32 minimum_timestep 1;
#else
#set minimum_timestep=1
#endif //minimum_timestep
// platform is set to MACOSX
#ifndef suppress_repeat_messages
global bool suppress_repeat_messages TRUE;
#else
#set suppress_repeat_messages=TRUE
#endif //suppress_repeat_messages
#ifndef maximum_synctime
global int32 maximum_synctime 60;
#else
#set maximum_synctime=60
#endif //maximum_synctime
#ifndef run_realtime
global bool run_realtime FALSE;
#else
#set run_realtime=FALSE
#endif //run_realtime
#ifndef enter_realtime
global timestamp enter_realtime "NEVER";
#else
#set enter_realtime=NEVER
#endif //enter_realtime
// realtime_metric is set to +0
#ifndef no_deprecate
global bool no_deprecate FALSE;
#else
#set no_deprecate=FALSE
#endif //no_deprecate
// streaming_io is set to FALSE
// compileonly is set to FALSE
// initializeonly is set to TRUE
#ifndef relax_naming_rules
global bool relax_naming_rules FALSE;
#else
#set relax_naming_rules=FALSE
#endif //relax_naming_rules
#ifndef browser
#define browser=safari
#else
#set browser=safari
#endif //browser
#ifndef server_portnum
global int32 server_portnum 0;
#else
#set server_portnum=0
#endif //server_portnum
#ifndef server_quit_on_close
global bool server_quit_on_close FALSE;
#else
#set server_quit_on_close=FALSE
#endif //server_quit_on_close
// client_allowed is set to
#ifndef autoclean
global bool autoclean TRUE;
#else
#set autoclean=TRUE
#endif //autoclean
#ifndef technology_readiness_level
global enumeration technology_readiness_level UNKNOWN;
#else
#set technology_readiness_level=UNKNOWN
#endif //technology_readiness_level
#ifndef show_progress
global bool show_progress TRUE;
#else
#set show_progress=TRUE
#endif //show_progress
#ifndef checkpoint_type
global enumeration checkpoint_type NONE;
#else
#set checkpoint_type=NONE
#endif //checkpoint_type
// checkpoint_file is set to
#ifndef checkpoint_seqnum
global int32 checkpoint_seqnum 0;
#else
#set checkpoint_seqnum=0
#endif //checkpoint_seqnum
#ifndef checkpoint_interval
global int32 checkpoint_interval 0;
#else
#set checkpoint_interval=0
#endif //checkpoint_interval
#ifndef checkpoint_keepall
global bool checkpoint_keepall FALSE;
#else
#set checkpoint_keepall=FALSE
#endif //checkpoint_keepall
#ifndef check_version
global bool check_version FALSE;
#else
#set check_version=FALSE
#endif //check_version
#ifndef random_number_generator
global enumeration random_number_generator RNG3;
#else
#set random_number_generator=RNG3
#endif //random_number_generator
#ifndef mainloop_state
global enumeration mainloop_state DONE;
#else
#set mainloop_state=DONE
#endif //mainloop_state
#ifndef pauseat
global timestamp pauseat "NEVER";
#else
#set pauseat=NEVER
#endif //pauseat
// infourl is set to http://docs.arras.energy/index.html?owner=arras-energy&project=gridlabd&search=
#ifndef hostname
#define hostname=localhost
#else
#set hostname=localhost
#endif //hostname
#ifndef hostaddr
global char32 hostaddr "127.0.0.1";
#else
#set hostaddr=127.0.0.1
#endif //hostaddr
#ifndef autostart_gui
global bool autostart_gui TRUE;
#else
#set autostart_gui=TRUE
#endif //autostart_gui
// master is set to
#ifndef master_port
global int64 master_port 0;
#else
#set master_port=0
#endif //master_port
#ifndef multirun_mode
global enumeration multirun_mode STANDALONE;
#else
#set multirun_mode=STANDALONE
#endif //multirun_mode
#ifndef multirun_conn
global enumeration multirun_conn NONE;
#else
#set multirun_conn=NONE
#endif //multirun_conn
#ifndef signal_timeout
global int32 signal_timeout 5000;
#else
#set signal_timeout=5000
#endif //signal_timeout
#ifndef slave_port
global int16 slave_port 6267;
#else
#set slave_port=6267
#endif //slave_port
#ifndef slave_id
global int64 slave_id 0;
#else
#set slave_id=0
#endif //slave_id
// return_code is set to 0
// exit_code is set to 0
#ifndef module_compiler_flags
global set module_compiler_flags NONE;
#else
#set module_compiler_flags=NONE
#endif //module_compiler_flags
// init_max_defer is set to 64
#ifndef mt_analysis
global bool mt_analysis FALSE;
#else
#set mt_analysis=FALSE
#endif //mt_analysis
#ifndef inline_block_size
global int32 inline_block_size 1048576;
#else
#set inline_block_size=1048576
#endif //inline_block_size
#ifndef validate
global set validate TSTD|RALL;
#else
#set validate=TSTD|RALL
#endif //validate
#ifndef sanitize
global set sanitize NAMES|POSITIONS;
#else
#set sanitize=NAMES|POSITIONS
#endif //sanitize
#ifndef sanitize_prefix
global char8 sanitize_prefix "GLD_";
#else
#set sanitize_prefix=GLD_
#endif //sanitize_prefix
#ifndef sanitize_index
#define sanitize_index=.txt
#else
#set sanitize_index=.txt
#endif //sanitize_index
// sanitize_offset is set to
#ifndef simulation_mode
global enumeration simulation_mode EVENT;
#else
#set simulation_mode=EVENT
#endif //simulation_mode
#ifndef deltamode_allowed
global bool deltamode_allowed FALSE;
#else
#set deltamode_allowed=FALSE
#endif //deltamode_allowed
#ifndef deltamode_timestep
global int32 deltamode_timestep 10000000;
#else
#set deltamode_timestep=10000000
#endif //deltamode_timestep
#ifndef deltamode_maximumtime
global int64 deltamode_maximumtime 3600000000000;
#else
#set deltamode_maximumtime=3600000000000
#endif //deltamode_maximumtime
#ifndef deltaclock
global int64 deltaclock 0;
#else
#set deltaclock=0
#endif //deltaclock
#ifndef delta_current_clock
global double delta_current_clock +0;
#else
#set delta_current_clock=+0
#endif //delta_current_clock
// deltamode_updateorder is set to powerflow,generators,residential
#ifndef deltamode_iteration_limit
global int32 deltamode_iteration_limit 10;
#else
#set deltamode_iteration_limit=10
#endif //deltamode_iteration_limit
#ifndef deltamode_forced_extra_timesteps
global int32 deltamode_forced_extra_timesteps 0;
#else
#set deltamode_forced_extra_timesteps=0
#endif //deltamode_forced_extra_timesteps
#ifndef deltamode_forced_always
global bool deltamode_forced_always FALSE;
#else
#set deltamode_forced_always=FALSE
#endif //deltamode_forced_always
#ifndef run_powerworld
global bool run_powerworld FALSE;
#else
#set run_powerworld=FALSE
#endif //run_powerworld
#ifndef bigranks
global bool bigranks TRUE;
#else
#set bigranks=TRUE
#endif //bigranks
// exename is set to /usr/local/opt/gridlabd/4.3.11-241218-develop_tkinter_gui-darwin_23-x86_64/bin/gridlabd.bin
#ifndef wget_options
#define wget_options=maxsize:100MB;update:newer
#else
#set wget_options=maxsize:100MB;update:newer
#endif //wget_options
#ifndef curl_options
#define curl_options=maxsize:100MB;update:newer
#else
#set curl_options=maxsize:100MB;update:newer
#endif //curl_options
#ifndef svnroot
#define svnroot=http://gridlab-d.svn.sourceforge.net/svnroot/gridlab-d
#else
#set svnroot=http://gridlab-d.svn.sourceforge.net/svnroot/gridlab-d
#endif //svnroot
#ifndef github
#define github=https://github.com/gridlab-d
#else
#set github=https://github.com/gridlab-d
#endif //github
#ifndef gitraw
#define gitraw=https://raw.githubusercontent.com/gridlab-d
#else
#set gitraw=https://raw.githubusercontent.com/gridlab-d
#endif //gitraw
#ifndef allow_reinclude
global bool allow_reinclude FALSE;
#else
#set allow_reinclude=FALSE
#endif //allow_reinclude
#ifndef output_message_context
global set output_message_context ALL;
#else
#set output_message_context=ALL
#endif //output_message_context
#ifndef permissive_access
global int32 permissive_access 0;
#else
#set permissive_access=0
#endif //permissive_access
#ifndef relax_undefined_if
global bool relax_undefined_if FALSE;
#else
#set relax_undefined_if=FALSE
#endif //relax_undefined_if
#ifndef literal_if
global bool literal_if TRUE;
#else
#set literal_if=TRUE
#endif //literal_if
#ifndef validto_context
global enumeration validto_context 1414746112;
#else
#set validto_context=1414746112
#endif //validto_context
#ifndef daemon_configfile
#define daemon_configfile=gridlabd.cnf
#else
#set daemon_configfile=gridlabd.cnf
#endif //daemon_configfile
// timezone_locale is set to PST8PDT
#ifndef glm_save_options
global set glm_save_options MINIMAL;
#else
#set glm_save_options=MINIMAL
#endif //glm_save_options
#ifndef filesave_options
global set filesave_options ALL;
#else
#set filesave_options=ALL
#endif //filesave_options
#ifndef ignore_errors
global bool ignore_errors FALSE;
#else
#set ignore_errors=FALSE
#endif //ignore_errors
#ifndef keep_progress
global bool keep_progress FALSE;
#else
#set keep_progress=FALSE
#endif //keep_progress
#ifndef allow_variant_aggregates
global bool allow_variant_aggregates FALSE;
#else
#set allow_variant_aggregates=FALSE
#endif //allow_variant_aggregates
// progress is set to +0
#ifndef server_keepalive
global bool server_keepalive FALSE;
#else
#set server_keepalive=FALSE
#endif //server_keepalive
#ifndef pythonpath
#define pythonpath=.:/usr/local/opt/gridlabd/4.3.11-241218-develop_tkinter_gui-darwin_23-x86_64/share/gridlabd:/usr/local/opt/gridlabd/4.3.11-241218-develop_tkinter_gui-darwin_23-x86_64/lib/gridlabd/python3.10/site-packages
#else
#set pythonpath=.:/usr/local/opt/gridlabd/4.3.11-241218-develop_tkinter_gui-darwin_23-x86_64/share/gridlabd:/usr/local/opt/gridlabd/4.3.11-241218-develop_tkinter_gui-darwin_23-x86_64/lib/gridlabd/python3.10/site-packages
#endif //pythonpath
// pythonexec is set to /usr/local/opt/gridlabd/4.3.11-241218-develop_tkinter_gui-darwin_23-x86_64/bin/python3
// datadir is set to /usr/local/opt/gridlabd/4.3.11-241218-develop_tkinter_gui-darwin_23-x86_64/share/gridlabd
// bindir is set to /usr/local/opt/gridlabd/4.3.11-241218-develop_tkinter_gui-darwin_23-x86_64/bin
// vardir is set to /usr/local/opt/gridlabd/4.3.11-241218-develop_tkinter_gui-darwin_23-x86_64/var/gridlabd
// libdir is set to /usr/local/opt/gridlabd/4.3.11-241218-develop_tkinter_gui-darwin_23-x86_64/lib/gridlabd
// incdir is set to /usr/local/opt/gridlabd/4.3.11-241218-develop_tkinter_gui-darwin_23-x86_64/include
// logfile is set to /tmp/gridlabd-log
// pidfile_dir is set to /tmp/gridlabd-pid
// configpath is set to /usr/local/opt/gridlabd/4.3.11-241218-develop_tkinter_gui-darwin_23-x86_64/share/gridlabd/solver_py.conf
#ifndef json_complex_format
global set json_complex_format STRING;
#else
#set json_complex_format=STRING
#endif //json_complex_format
#ifndef rusage_file
#define rusage_file=gridlabd-rusage.csv
#else
#set rusage_file=gridlabd-rusage.csv
#endif //rusage_file
#ifndef rusage_rate
global int64 rusage_rate 0;
#else
#set rusage_rate=0
#endif //rusage_rate
#ifndef rusage
#define rusage={"utime" : 0.493812, "stime" : 0.193386, "maxrss" : 32399360, "ixrss" : 0, "idrss" : 0, "isrss" : 0, "minflt" : 9695, "majflt" : 4, "nswap" : 0, "inblock" : 0, "oublock" : 0, "msgsnd" : 0, "msgrcv" : 0, "nsignals" : 0, "nvcsw" : 29, "nivcsw" : 4827}
#else
#set rusage={"utime" : 0.493812, "stime" : 0.193386, "maxrss" : 32399360, "ixrss" : 0, "idrss" : 0, "isrss" : 0, "minflt" : 9695, "majflt" : 4, "nswap" : 0, "inblock" : 0, "oublock" : 0, "msgsnd" : 0, "msgrcv" : 0, "nsignals" : 0, "nvcsw" : 29, "nivcsw" : 4827}
#endif //rusage
#ifndef echo
global bool echo FALSE;
#else
#set echo=FALSE
#endif //echo
// filename is set to /Users/david/Downloads/IEEE-123.glm
#ifndef country
global char8 country "US";
#else
#set country=US
#endif //country
#ifndef region
global char32 region "CA";
#else
#set region=CA
#endif //region
#ifndef organization
global char32 organization "SLAC";
#else
#set organization=SLAC
#endif //organization
// profile_output_format is set to
#ifndef maximum_runtime
global int64 maximum_runtime 0;
#else
#set maximum_runtime=0
#endif //maximum_runtime
#ifndef flush_output
global int32 flush_output 0;
#else
#set flush_output=0
#endif //flush_output
// climate::message_flags is set to DEBUG|VERBOSE
// climate::library_path is set to /usr/local/opt/gridlabd/4.3.11-241218-develop_tkinter_gui-darwin_23-x86_64/share/gridlabd/weather/US
// powerflow::message_flags is set to DEBUG|VERBOSE
// powerflow::show_matrix_values is set to FALSE
// powerflow::primary_voltage_ratio is set to +60 pu
// powerflow::nominal_frequency is set to +60 Hz
// powerflow::require_voltage_control is set to FALSE
// powerflow::geographic_degree is set to +0
// powerflow::fault_impedance is set to +1e-06+0j Ohm
// powerflow::ground_impedance is set to +1e-06+0j Ohm
// powerflow::warning_underfrequency is set to +55 Hz
// powerflow::warning_overfrequency is set to +65 Hz
// powerflow::warning_undervoltage is set to +0.8 V
// powerflow::warning_overvoltage is set to +1.2 V
// powerflow::warning_voltageangle is set to +2
// powerflow::maximum_voltage_error is set to +1e-06 V
// powerflow::solver_method is set to NR
// powerflow::NR_matrix_file is set to
// powerflow::NR_matrix_output_interval is set to NEVER
// powerflow::NR_matrix_output_references is set to FALSE
// powerflow::NR_matrix_output_rhs is set to FALSE
// powerflow::NR_island_failure_handled is set to FALSE
// powerflow::line_capacitance is set to TRUE
// powerflow::line_limits is set to TRUE
// powerflow::lu_solver is set to
// powerflow::NR_iteration_limit is set to 500
// powerflow::NR_deltamode_iteration_limit is set to 10
// powerflow::NR_superLU_procs is set to 1
// powerflow::default_maximum_voltage_error is set to +1e-06 pu
// powerflow::default_maximum_power_error is set to +0.0001 pu
// powerflow::NR_admit_change is set to FALSE
// powerflow::enable_subsecond_models is set to FALSE
// powerflow::all_powerflow_delta is set to FALSE
// powerflow::deltamode_timestep is set to +1e+07 ns
// powerflow::current_frequency is set to +60 Hz
// powerflow::master_frequency_update is set to FALSE
// powerflow::enable_frequency_dependence is set to FALSE
// powerflow::default_resistance is set to +0.0001 Ohm
// powerflow::enable_inrush is set to FALSE
// powerflow::low_voltage_impedance_level is set to +0.7 pu
// powerflow::enable_mesh_fault_current is set to FALSE
// powerflow::convergence_error_handling is set to IGNORE
// powerflow::solver_profile_enable is set to TRUE
// powerflow::solver_profile_filename is set to solver_nr_profile.csv
// powerflow::solver_profile_headers_included is set to TRUE
// powerflow::solver_headers is set to timestamp,duration[microsec],iteration,bus_count,branch_count,error
// powerflow::solver_profile_csv is set to FALSE
// powerflow::solver_py_config is set to /usr/local/opt/gridlabd/4.3.11-241218-develop_tkinter_gui-darwin_23-x86_64/share/gridlabd/solver_py.conf
// powerflow::solver_dump_enable is set to FALSE
// powerflow::violation_record is set to
// powerflow::violation_count is set to 0
// powerflow::violation_active is set to 0
// powerflow::violation_watchset is set to ALL
// powerflow::voltage_violation_threshold is set to +0.05 pu
// powerflow::undervoltage_violation_threshold is set to +0 pu
// powerflow::overvoltage_violation_threshold is set to +0 pu
// powerflow::voltage_fluctuation_threshold is set to +0.03 pu
// powerflow::DER_violation_test is set to ANY
// powerflow::default_continuous_rating is set to +1000 A
// powerflow::default_emergency_rating is set to +2000 A
// powerflow::default_violation_rating is set to +0 A
// powerflow::market_price_name is set to current_market.clearing_price
// powerflow::repair_time is set to +24 h
// powerflow::wind_speed_name is set to wind_speed
// powerflow::wind_dir_name is set to wind_dir
// powerflow::wind_gust_name is set to wind_gust
// powerflow::stop_on_pole_failure is set to FALSE
// powerflow::climate_impact_zone is set to NONE
// powerflow::building_defaults is set to building_defaults.csv
// powerflow::building_loadshapes is set to building_loadshapes.csv
// powerflow::building_occupancy is set to building_occupancy.csv
// powerflow::inverter_settings is set to inverter_settings.csv
// powerflow::NAICS_datafile is set to naics_data_file.csv
// powerflow::ground_temperature is set to +25 degC
// powerflow::warning_cable_temperature is set to +80 degC
// powerflow::alert_cable_temperature is set to +90 degC
// powerflow::ductbank_configuration_file is set to ductbank_configurations.csv
// powerflow::air_effective_conductivity is set to +0.2 W/K*m
// generators::message_flags is set to DEBUG|VERBOSE
// generators::enable_subsecond_models is set to FALSE
// generators::deltamode_timestep is set to +1e+07 ns
// residential::message_flags is set to DEBUG|VERBOSE
// residential::default_line_voltage is set to +240+0d V
// residential::default_line_current is set to +0+0j A
// residential::default_outdoor_temperature is set to +74 degF
// residential::default_humidity is set to +75 %
// residential::default_solar is set to +0 Btu/sf
// residential::default_etp_iterations is set to 100
// residential::ANSI_voltage_check is set to TRUE
// residential::enable_subsecond_models is set to FALSE
// residential::deltamode_timestep is set to +1e+07 ns
// residential::all_house_delta is set to FALSE
// residential::implicit_enduses is set to DRYER|CLOTHESWASHER|WATERHEATER|RANGE|REFRIGERATOR|FREEZER|MICROWAVE|DISHWASHER|PLUGS|LIGHTS
// residential::implicit_enduse_source is set to ELCAP1990
// residential::house_low_temperature_warning is set to +55 degF
// residential::house_high_temperature_warning is set to +95 degF
// residential::thermostat_control_warning is set to +4.94066e-324
// residential::system_dwell_time is set to +1 s
// residential::aux_cutin_temperature is set to +10 degF
// residential::paneldump_filename is set to paneldump.csv
// residential::paneldump_interval is set to 0
// residential::paneldump_resolution is set to +0
// residential::sump_humidity_factor is set to +0.01 pu/%/h
// residential::sump_rainfall_factor is set to +1 pu/in/day
// residential::sump_snowmelt_factor is set to +0.1 pu/in/day
// residential::curtailment_enduses is set to DISHWASHER|MICROWAVE|RANGE|EVCHARGER|CLOTHESWASHER|DRYER
// residential::curtailment_active is set to FALSE
#ifndef default_nominal_voltage_A
global complex default_nominal_voltage_A +240+0d;
#else
#set default_nominal_voltage_A=+240+0d
#endif //default_nominal_voltage_A
#ifndef default_nominal_voltage_B
global complex default_nominal_voltage_B +268.328-26.5651d;
#else
#set default_nominal_voltage_B=+268.328-26.5651d
#endif //default_nominal_voltage_B
#ifndef default_nominal_voltage_C
global complex default_nominal_voltage_C +268.328+26.5651d;
#else
#set default_nominal_voltage_C=+268.328+26.5651d
#endif //default_nominal_voltage_C
#ifndef default_nominal_voltage
global double default_nominal_voltage +240;
#else
#set default_nominal_voltage=+240
#endif //default_nominal_voltage
#ifndef default_weekday_code
global char32 default_weekday_code "WEEKDAY";
#else
#set default_weekday_code=WEEKDAY
#endif //default_weekday_code
#ifndef default_saturday_code
global char32 default_saturday_code "SATURDAY";
#else
#set default_saturday_code=SATURDAY
#endif //default_saturday_code
#ifndef default_sunday_code
global char32 default_sunday_code "SUNDAY";
#else
#set default_sunday_code=SUNDAY
#endif //default_sunday_code
#ifndef default_holiday_code
global char32 default_holiday_code "HOLIDAY";
#else
#set default_holiday_code=HOLIDAY
#endif //default_holiday_code
#ifndef default_month_heading
global char32 default_month_heading "Month";
#else
#set default_month_heading=Month
#endif //default_month_heading
#ifndef default_daytype_heading
global char32 default_daytype_heading "Daytype";
#else
#set default_daytype_heading=Daytype
#endif //default_daytype_heading
#ifndef default_hour_heading
global char32 default_hour_heading "Hour";
#else
#set default_hour_heading=Hour
#endif //default_hour_heading
#ifndef default_temperature_heating_balance
global double default_temperature_heating_balance +55;
#else
#set default_temperature_heating_balance=+55
#endif //default_temperature_heating_balance
#ifndef default_temperature_cooling_balance
global double default_temperature_cooling_balance +70;
#else
#set default_temperature_cooling_balance=+70
#endif //default_temperature_cooling_balance
#ifndef default_temperature_heating_base
global double default_temperature_heating_base +55;
#else
#set default_temperature_heating_base=+55
#endif //default_temperature_heating_base
#ifndef default_temperature_cooling_base
global double default_temperature_cooling_base +70;
#else
#set default_temperature_cooling_base=+70
#endif //default_temperature_cooling_base
#ifndef default_temperature_heating_design
global double default_temperature_heating_design +0;
#else
#set default_temperature_heating_design=+0
#endif //default_temperature_heating_design
#ifndef default_temperature_cooling_design
global double default_temperature_cooling_design +100;
#else
#set default_temperature_cooling_design=+100
#endif //default_temperature_cooling_design
#ifndef default_solargain_base
global double default_solargain_base +0;
#else
#set default_solargain_base=+0
#endif //default_solargain_base
#ifndef default_price_base
global double default_price_base +0;
#else
#set default_price_base=+0
#endif //default_price_base
#ifndef default_occupancy_base
global double default_occupancy_base +1;
#else
#set default_occupancy_base=+1
#endif //default_occupancy_base
#ifndef temperature_variable_name
#define temperature_variable_name=temperature
#else
#set temperature_variable_name=temperature
#endif //temperature_variable_name
#ifndef solargain_variable_name
#define solargain_variable_name=solar_direct
#else
#set solargain_variable_name=solar_direct
#endif //solargain_variable_name
#ifndef price_variable_name
#define price_variable_name=energy_price
#else
#set price_variable_name=energy_price
#endif //price_variable_name
#ifndef occupancy_variable_name
#define occupancy_variable_name=occupancy_fraction
#else
#set occupancy_variable_name=occupancy_fraction
#endif //occupancy_variable_name

// CLASSES
class solar
{
	set phases;
}// SCHEDULES



// OBJECTS
object climate
{
	name "weather";
	latitude "35.433333";
	longitude "-119.050000";
	rng_state "16807";
	guid "491F7FAB7E632B4F";
	solar_elevation "-1.10224 rad";
	solar_azimuth "0.867987 rad";
	solar_zenith "2.67304 rad";
	tmyfile "IEEE-123.tmy3";
	temperature "43.882 degF";
	humidity "0.74 pu";
	solar_flux "0 W/sf";
	solar_direct "0 W/sf";
	solar_diffuse "0 W/sf";
	solar_global "0 W/sf";
	extraterrestrial_global_horizontal "0 W/sf";
	extraterrestrial_direct_normal "0 W/sf";
	pressure "999 mbar";
	wind_speed "1.2 m/s";
	wind_dir "80 rad";
	wind_gust "0 m/s";
	record.low "30.922 degF";
	record.low_day "0";
	record.high "107.962 degF";
	record.high_day "0";
	record.solar "95.2906 W/sf";
	rainfall "0.59055 in/h";
	snowdepth "0 in";
	interpolate "QUADRATIC";
	solar_horiz "0";
	solar_north "0";
	solar_northeast "0";
	solar_east "0";
	solar_southeast "0";
	solar_south "0";
	solar_southwest "0";
	solar_west "0";
	solar_northwest "0";
	solar_raw "0 W/sf";
	ground_reflectivity "0.3 pu";
	cloud_model "NONE";
	cloud_opacity "1 pu";
	opq_sky_cov "0 pu";
	cloud_speed_factor "1 pu";
	solar_cloud_direct "0 W/sf";
	solar_cloud_diffuse "0 W/sf";
	solar_cloud_global "0 W/sf";
	cloud_alpha "400 pu";
	cloud_num_layers "40 pu";
	cloud_aerosol_transmissivity "0.95 pu";
	heat_index "42.6651 degF";
}
object overhead_line_conductor
{
	name "olc301c";
	rng_state "282475249";
	guid "7EF63361B99E8EA0";
	geometric_mean_radius "0.0244 ft";
	resistance "0.306 Ohm/mile";
	diameter "0.721 in";
	rating.summer.continuous "1000 A";
	rating.summer.emergency "2000 A";
	rating.winter.continuous "1000 A";
	rating.winter.emergency "2000 A";
	weight "0 lb/ft";
	strength "0 lb";
}
object overhead_line_conductor
{
	name "olc301n";
	rng_state "1622650073";
	guid "20864657BE192D4F";
	geometric_mean_radius "0.00814 ft";
	resistance "0.592 Ohm/mile";
	diameter "0.563 in";
	rating.summer.continuous "1000 A";
	rating.summer.emergency "2000 A";
	rating.winter.continuous "1000 A";
	rating.winter.emergency "2000 A";
	weight "0 lb/ft";
	strength "0 lb";
}
object overhead_line_conductor
{
	name "olc309";
	rng_state "984943658";
	guid "37775A92D923AA1C";
	geometric_mean_radius "0.00446 ft";
	resistance "1.12 Ohm/mile";
	diameter "0.398 in";
	rating.summer.continuous "1000 A";
	rating.summer.emergency "2000 A";
	rating.winter.continuous "1000 A";
	rating.winter.emergency "2000 A";
	weight "0 lb/ft";
	strength "0 lb";
}
object underground_line_conductor
{
	name "ulc312";
	rng_state "1144108930";
	guid "107376A587F80584";
	outer_diameter "1.06 in";
	conductor_gmr "0.0111 ft";
	conductor_diameter "0.368 in";
	conductor_resistance "0.97 Ohm/mile";
	neutral_gmr "0.00208 ft";
	neutral_diameter "0.0640837 in";
	neutral_resistance "14.8722 Ohm/mile";
	neutral_strands "16";
	shield_thickness "0 in";
	shield_diameter "0 in";
	insulation_relative_permitivitty "1 unit";
	shield_gmr "0 ft";
	shield_resistance "0 Ohm/mile";
	rating.summer.continuous "1000 A";
	rating.summer.emergency "2000 A";
	rating.winter.continuous "1000 A";
	rating.winter.emergency "2000 A";
	insulation_R "10 K/W";
}
object line_spacing
{
	name "ls500301";
	rng_state "470211272";
	guid "24EB6F344FAB4683";
	distance_AB "2.5 ft";
	distance_BC "4.5 ft";
	distance_AC "7 ft";
	distance_AN "5.65685 ft";
	distance_BN "4.272 ft";
	distance_CN "5 ft";
	distance_AE "28 ft";
	distance_BE "28 ft";
	distance_CE "28 ft";
	distance_NE "24 ft";
}
object line_spacing
{
	name "ls500302";
	rng_state "101027544";
	guid "412DFA5F6CDA1ACE";
	distance_AB "4.5 ft";
	distance_BC "7 ft";
	distance_AC "2.5 ft";
	distance_AN "4.272 ft";
	distance_BN "5 ft";
	distance_CN "5.65685 ft";
	distance_AE "28 ft";
	distance_BE "28 ft";
	distance_CE "28 ft";
	distance_NE "24 ft";
}
object line_spacing
{
	name "ls500303";
	rng_state "1457850878";
	guid "5B7BA46316F86157";
	distance_AB "7 ft";
	distance_BC "2.5 ft";
	distance_AC "4.5 ft";
	distance_AN "5 ft";
	distance_BN "5.65685 ft";
	distance_CN "4.272 ft";
	distance_AE "28 ft";
	distance_BE "28 ft";
	distance_CE "28 ft";
	distance_NE "24 ft";
}
object line_spacing
{
	name "ls500304";
	rng_state "1458777923";
	guid "52F73122D9506B8A";
	distance_AB "4.5 ft";
	distance_BC "2.5 ft";
	distance_AC "7 ft";
	distance_AN "5 ft";
	distance_BN "4.272 ft";
	distance_CN "5.65685 ft";
	distance_AE "28 ft";
	distance_BE "28 ft";
	distance_CE "28 ft";
	distance_NE "24 ft";
}
object line_spacing
{
	name "ls500305";
	rng_state "2007237709";
	guid "3F0329EED615C3E";
	distance_AB "2.5 ft";
	distance_BC "7 ft";
	distance_AC "4.5 ft";
	distance_AN "4.272 ft";
	distance_BN "5.65685 ft";
	distance_CN "5 ft";
	distance_AE "28 ft";
	distance_BE "28 ft";
	distance_CE "28 ft";
	distance_NE "24 ft";
}
object line_spacing
{
	name "ls500306";
	rng_state "823564440";
	guid "19FB6B23C944322D";
	distance_AB "2.5 ft";
	distance_BC "4.5 ft";
	distance_AC "7 ft";
	distance_AN "5.65685 ft";
	distance_BN "4.272 ft";
	distance_CN "5 ft";
	distance_AE "28 ft";
	distance_BE "28 ft";
	distance_CE "28 ft";
	distance_NE "24 ft";
}
object line_spacing
{
	name "ls505307";
	rng_state "1115438165";
	guid "63EE791B9D3D626D";
	distance_AB "0 ft";
	distance_BC "0 ft";
	distance_AC "7 ft";
	distance_AN "5.65685 ft";
	distance_BN "0 ft";
	distance_CN "5 ft";
	distance_AE "28 ft";
	distance_BE "0 ft";
	distance_CE "28 ft";
	distance_NE "24 ft";
}
object line_spacing
{
	name "ls505308";
	rng_state "1784484492";
	guid "5C2137E84362EEF1";
	distance_AB "7 ft";
	distance_BC "0 ft";
	distance_AC "0 ft";
	distance_AN "5.65685 ft";
	distance_BN "5 ft";
	distance_CN "0 ft";
	distance_AE "28 ft";
	distance_BE "28 ft";
	distance_CE "0 ft";
	distance_NE "24 ft";
}
object line_spacing
{
	name "ls510309";
	rng_state "74243042";
	guid "221B5563EC6AA24F";
	distance_AB "0 ft";
	distance_BC "0 ft";
	distance_AC "0 ft";
	distance_AN "5.02494 ft";
	distance_BN "0 ft";
	distance_CN "0 ft";
	distance_AE "28 ft";
	distance_BE "0 ft";
	distance_CE "0 ft";
	distance_NE "24 ft";
}
object line_spacing
{
	name "ls510310";
	rng_state "114807987";
	guid "70F7490B1C9BCB1C";
	distance_AB "0 ft";
	distance_BC "0 ft";
	distance_AC "0 ft";
	distance_AN "0 ft";
	distance_BN "5.02494 ft";
	distance_CN "0 ft";
	distance_AE "0 ft";
	distance_BE "28 ft";
	distance_CE "0 ft";
	distance_NE "24 ft";
}
object line_spacing
{
	name "ls510311";
	rng_state "1137522503";
	guid "39BD413313CDBCB6";
	distance_AB "0 ft";
	distance_BC "0 ft";
	distance_AC "0 ft";
	distance_AN "0 ft";
	distance_BN "0 ft";
	distance_CN "5.02494 ft";
	distance_AE "0 ft";
	distance_BE "0 ft";
	distance_CE "28 ft";
	distance_NE "24 ft";
}
object line_spacing
{
	name "ls515312";
	rng_state "1441282327";
	guid "2389A8FD83A79F76";
	distance_AB "0.5 ft";
	distance_BC "0.5 ft";
	distance_AC "1 ft";
	distance_AN "0 ft";
	distance_BN "0 ft";
	distance_CN "0 ft";
	distance_AE "0 ft";
	distance_BE "0 ft";
	distance_CE "0 ft";
	distance_NE "0 ft";
}
object line_configuration
{
	name "lc301";
	rng_state "16531729";
	guid "6A3426AADEDB8F1F";
	conductor_A "olc301c";
	conductor_B "olc301c";
	conductor_C "olc301c";
	conductor_N "olc301n";
	spacing "ls500301";
	z11 "0+0j Ohm/mile";
	z12 "0+0j Ohm/mile";
	z13 "0+0j Ohm/mile";
	z21 "0+0j Ohm/mile";
	z22 "0+0j Ohm/mile";
	z23 "0+0j Ohm/mile";
	z31 "0+0j Ohm/mile";
	z32 "0+0j Ohm/mile";
	z33 "0+0j Ohm/mile";
	c11 "0 nF/mile";
	c12 "0 nF/mile";
	c13 "0 nF/mile";
	c21 "0 nF/mile";
	c22 "0 nF/mile";
	c23 "0 nF/mile";
	c31 "0 nF/mile";
	c32 "0 nF/mile";
	c33 "0 nF/mile";
	rating.summer.continuous "1000 A";
	rating.summer.emergency "2000 A";
	rating.winter.continuous "1000 A";
	rating.winter.emergency "2000 A";
}
object line_configuration
{
	name "lc302";
	rng_state "823378840";
	guid "364805BCD48FF821";
	conductor_A "olc301c";
	conductor_B "olc301c";
	conductor_C "olc301c";
	conductor_N "olc301n";
	spacing "ls500302";
	z11 "0+0j Ohm/mile";
	z12 "0+0j Ohm/mile";
	z13 "0+0j Ohm/mile";
	z21 "0+0j Ohm/mile";
	z22 "0+0j Ohm/mile";
	z23 "0+0j Ohm/mile";
	z31 "0+0j Ohm/mile";
	z32 "0+0j Ohm/mile";
	z33 "0+0j Ohm/mile";
	c11 "0 nF/mile";
	c12 "0 nF/mile";
	c13 "0 nF/mile";
	c21 "0 nF/mile";
	c22 "0 nF/mile";
	c23 "0 nF/mile";
	c31 "0 nF/mile";
	c32 "0 nF/mile";
	c33 "0 nF/mile";
	rating.summer.continuous "1000 A";
	rating.summer.emergency "2000 A";
	rating.winter.continuous "1000 A";
	rating.winter.emergency "2000 A";
}
object line_configuration
{
	name "lc303";
	rng_state "143542612";
	guid "5AF7F45F930019D0";
	conductor_A "olc301c";
	conductor_B "olc301c";
	conductor_C "olc301c";
	conductor_N "olc301n";
	spacing "ls500303";
	z11 "0+0j Ohm/mile";
	z12 "0+0j Ohm/mile";
	z13 "0+0j Ohm/mile";
	z21 "0+0j Ohm/mile";
	z22 "0+0j Ohm/mile";
	z23 "0+0j Ohm/mile";
	z31 "0+0j Ohm/mile";
	z32 "0+0j Ohm/mile";
	z33 "0+0j Ohm/mile";
	c11 "0 nF/mile";
	c12 "0 nF/mile";
	c13 "0 nF/mile";
	c21 "0 nF/mile";
	c22 "0 nF/mile";
	c23 "0 nF/mile";
	c31 "0 nF/mile";
	c32 "0 nF/mile";
	c33 "0 nF/mile";
	rating.summer.continuous "1000 A";
	rating.summer.emergency "2000 A";
	rating.winter.continuous "1000 A";
	rating.winter.emergency "2000 A";
}
object line_configuration
{
	name "lc304";
	rng_state "896544303";
	guid "68E5CFA4341D8681";
	conductor_A "olc301c";
	conductor_B "olc301c";
	conductor_C "olc301c";
	conductor_N "olc301n";
	spacing "ls500304";
	z11 "0+0j Ohm/mile";
	z12 "0+0j Ohm/mile";
	z13 "0+0j Ohm/mile";
	z21 "0+0j Ohm/mile";
	z22 "0+0j Ohm/mile";
	z23 "0+0j Ohm/mile";
	z31 "0+0j Ohm/mile";
	z32 "0+0j Ohm/mile";
	z33 "0+0j Ohm/mile";
	c11 "0 nF/mile";
	c12 "0 nF/mile";
	c13 "0 nF/mile";
	c21 "0 nF/mile";
	c22 "0 nF/mile";
	c23 "0 nF/mile";
	c31 "0 nF/mile";
	c32 "0 nF/mile";
	c33 "0 nF/mile";
	rating.summer.continuous "1000 A";
	rating.summer.emergency "2000 A";
	rating.winter.continuous "1000 A";
	rating.winter.emergency "2000 A";
}
object line_configuration
{
	name "lc305";
	rng_state "1474833169";
	guid "366CEE193F4A937B";
	conductor_A "olc301c";
	conductor_B "olc301c";
	conductor_C "olc301c";
	conductor_N "olc301n";
	spacing "ls500305";
	z11 "0+0j Ohm/mile";
	z12 "0+0j Ohm/mile";
	z13 "0+0j Ohm/mile";
	z21 "0+0j Ohm/mile";
	z22 "0+0j Ohm/mile";
	z23 "0+0j Ohm/mile";
	z31 "0+0j Ohm/mile";
	z32 "0+0j Ohm/mile";
	z33 "0+0j Ohm/mile";
	c11 "0 nF/mile";
	c12 "0 nF/mile";
	c13 "0 nF/mile";
	c21 "0 nF/mile";
	c22 "0 nF/mile";
	c23 "0 nF/mile";
	c31 "0 nF/mile";
	c32 "0 nF/mile";
	c33 "0 nF/mile";
	rating.summer.continuous "1000 A";
	rating.summer.emergency "2000 A";
	rating.winter.continuous "1000 A";
	rating.winter.emergency "2000 A";
}
object line_configuration
{
	name "lc306";
	rng_state "1264817709";
	guid "6035EC1D7367D74C";
	conductor_A "olc301c";
	conductor_B "olc301c";
	conductor_C "olc301c";
	conductor_N "olc301n";
	spacing "ls500306";
	z11 "0+0j Ohm/mile";
	z12 "0+0j Ohm/mile";
	z13 "0+0j Ohm/mile";
	z21 "0+0j Ohm/mile";
	z22 "0+0j Ohm/mile";
	z23 "0+0j Ohm/mile";
	z31 "0+0j Ohm/mile";
	z32 "0+0j Ohm/mile";
	z33 "0+0j Ohm/mile";
	c11 "0 nF/mile";
	c12 "0 nF/mile";
	c13 "0 nF/mile";
	c21 "0 nF/mile";
	c22 "0 nF/mile";
	c23 "0 nF/mile";
	c31 "0 nF/mile";
	c32 "0 nF/mile";
	c33 "0 nF/mile";
	rating.summer.continuous "1000 A";
	rating.summer.emergency "2000 A";
	rating.winter.continuous "1000 A";
	rating.winter.emergency "2000 A";
}
object line_configuration
{
	name "lc307";
	rng_state "1998097157";
	guid "56CD719513B96B3A";
	conductor_A "olc301c";
	conductor_C "olc301c";
	conductor_N "olc301n";
	spacing "ls505307";
	z11 "0+0j Ohm/mile";
	z12 "0+0j Ohm/mile";
	z13 "0+0j Ohm/mile";
	z21 "0+0j Ohm/mile";
	z22 "0+0j Ohm/mile";
	z23 "0+0j Ohm/mile";
	z31 "0+0j Ohm/mile";
	z32 "0+0j Ohm/mile";
	z33 "0+0j Ohm/mile";
	c11 "0 nF/mile";
	c12 "0 nF/mile";
	c13 "0 nF/mile";
	c21 "0 nF/mile";
	c22 "0 nF/mile";
	c23 "0 nF/mile";
	c31 "0 nF/mile";
	c32 "0 nF/mile";
	c33 "0 nF/mile";
	rating.summer.continuous "1000 A";
	rating.summer.emergency "2000 A";
	rating.winter.continuous "1000 A";
	rating.winter.emergency "2000 A";
}
object line_configuration
{
	name "lc308";
	rng_state "1817129560";
	guid "500DBC66BB4070D2";
	conductor_A "olc301c";
	conductor_B "olc301c";
	conductor_N "olc301n";
	spacing "ls505308";
	z11 "0+0j Ohm/mile";
	z12 "0+0j Ohm/mile";
	z13 "0+0j Ohm/mile";
	z21 "0+0j Ohm/mile";
	z22 "0+0j Ohm/mile";
	z23 "0+0j Ohm/mile";
	z31 "0+0j Ohm/mile";
	z32 "0+0j Ohm/mile";
	z33 "0+0j Ohm/mile";
	c11 "0 nF/mile";
	c12 "0 nF/mile";
	c13 "0 nF/mile";
	c21 "0 nF/mile";
	c22 "0 nF/mile";
	c23 "0 nF/mile";
	c31 "0 nF/mile";
	c32 "0 nF/mile";
	c33 "0 nF/mile";
	rating.summer.continuous "1000 A";
	rating.summer.emergency "2000 A";
	rating.winter.continuous "1000 A";
	rating.winter.emergency "2000 A";
}
object line_configuration
{
	name "lc309";
	rng_state "1131570933";
	guid "6503EF4440DD36F3";
	conductor_A "olc309";
	conductor_N "olc309";
	spacing "ls510309";
	z11 "0+0j Ohm/mile";
	z12 "0+0j Ohm/mile";
	z13 "0+0j Ohm/mile";
	z21 "0+0j Ohm/mile";
	z22 "0+0j Ohm/mile";
	z23 "0+0j Ohm/mile";
	z31 "0+0j Ohm/mile";
	z32 "0+0j Ohm/mile";
	z33 "0+0j Ohm/mile";
	c11 "0 nF/mile";
	c12 "0 nF/mile";
	c13 "0 nF/mile";
	c21 "0 nF/mile";
	c22 "0 nF/mile";
	c23 "0 nF/mile";
	c31 "0 nF/mile";
	c32 "0 nF/mile";
	c33 "0 nF/mile";
	rating.summer.continuous "1000 A";
	rating.summer.emergency "2000 A";
	rating.winter.continuous "1000 A";
	rating.winter.emergency "2000 A";
}
object line_configuration
{
	name "lc310";
	rng_state "197493099";
	guid "472538527FD7A16C";
	conductor_B "olc309";
	conductor_N "olc309";
	spacing "ls510310";
	z11 "0+0j Ohm/mile";
	z12 "0+0j Ohm/mile";
	z13 "0+0j Ohm/mile";
	z21 "0+0j Ohm/mile";
	z22 "0+0j Ohm/mile";
	z23 "0+0j Ohm/mile";
	z31 "0+0j Ohm/mile";
	z32 "0+0j Ohm/mile";
	z33 "0+0j Ohm/mile";
	c11 "0 nF/mile";
	c12 "0 nF/mile";
	c13 "0 nF/mile";
	c21 "0 nF/mile";
	c22 "0 nF/mile";
	c23 "0 nF/mile";
	c31 "0 nF/mile";
	c32 "0 nF/mile";
	c33 "0 nF/mile";
	rating.summer.continuous "1000 A";
	rating.summer.emergency "2000 A";
	rating.winter.continuous "1000 A";
	rating.winter.emergency "2000 A";
}
object line_configuration
{
	name "lc311";
	rng_state "1404280278";
	guid "498CD70DDF4DB1DC";
	conductor_C "olc309";
	conductor_N "olc309";
	spacing "ls510311";
	z11 "0+0j Ohm/mile";
	z12 "0+0j Ohm/mile";
	z13 "0+0j Ohm/mile";
	z21 "0+0j Ohm/mile";
	z22 "0+0j Ohm/mile";
	z23 "0+0j Ohm/mile";
	z31 "0+0j Ohm/mile";
	z32 "0+0j Ohm/mile";
	z33 "0+0j Ohm/mile";
	c11 "0 nF/mile";
	c12 "0 nF/mile";
	c13 "0 nF/mile";
	c21 "0 nF/mile";
	c22 "0 nF/mile";
	c23 "0 nF/mile";
	c31 "0 nF/mile";
	c32 "0 nF/mile";
	c33 "0 nF/mile";
	rating.summer.continuous "1000 A";
	rating.summer.emergency "2000 A";
	rating.winter.continuous "1000 A";
	rating.winter.emergency "2000 A";
}
object line_configuration
{
	name "lc312";
	rng_state "893351816";
	guid "7CF7DD093C0D39C6";
	conductor_A "ulc312";
	conductor_B "ulc312";
	conductor_C "ulc312";
	spacing "ls515312";
	z11 "0+0j Ohm/mile";
	z12 "0+0j Ohm/mile";
	z13 "0+0j Ohm/mile";
	z21 "0+0j Ohm/mile";
	z22 "0+0j Ohm/mile";
	z23 "0+0j Ohm/mile";
	z31 "0+0j Ohm/mile";
	z32 "0+0j Ohm/mile";
	z33 "0+0j Ohm/mile";
	c11 "0 nF/mile";
	c12 "0 nF/mile";
	c13 "0 nF/mile";
	c21 "0 nF/mile";
	c22 "0 nF/mile";
	c23 "0 nF/mile";
	c31 "0 nF/mile";
	c32 "0 nF/mile";
	c33 "0 nF/mile";
	rating.summer.continuous "1000 A";
	rating.summer.emergency "2000 A";
	rating.winter.continuous "1000 A";
	rating.winter.emergency "2000 A";
}
object transformer_configuration
{
	name "tc500";
	rng_state "1505795335";
	guid "4F5739075F2FB7ED";
	connect_type "DELTA_DELTA";
	install_type "PADMOUNT";
	coolant_type "UNKNOWN";
	cooling_type "UNKNOWN";
	primary_voltage "4160 V";
	secondary_voltage "480 V";
	power_rating "150 kVA";
	powerA_rating "50 kVA";
	powerB_rating "50 kVA";
	powerC_rating "50 kVA";
	powerN_rating "0 kVA";
	resistance "0.0127 pu*Ohm";
	reactance "0.0272 pu*Ohm";
	impedance "0.0127+0.0272j pu*Ohm";
	resistance1 "0 pu*Ohm";
	reactance1 "0 pu*Ohm";
	impedance1 "0+0j pu*Ohm";
	resistance2 "0 pu*Ohm";
	reactance2 "0 pu*Ohm";
	impedance2 "0+0j pu*Ohm";
	shunt_resistance "1e+09 pu*Ohm";
	shunt_reactance "1e+09 pu*Ohm";
	shunt_impedance "1e+09+1e+09j pu*Ohm";
	core_coil_weight "0 lb";
	tank_fittings_weight "0 lb";
	oil_volume "0 gal";
	rated_winding_time_constant "0 h";
	rated_winding_hot_spot_rise "0 degC";
	rated_top_oil_rise "0 degC";
	no_load_loss "0 pu";
	full_load_loss "0 pu";
	reactance_resistance_ratio "4.5";
	installed_insulation_life "0 h";
	magnetization_location "NONE";
	inrush_saturation_enabled "FALSE";
	L_A "0.2 pu";
	phi_K "1.17 pu";
	phi_M "1 pu";
	I_M "0.01 pu";
	T_D "0.5";
}
object transformer_configuration
{
	name "tc9999";
	rng_state "1954899097";
	guid "19F2FC4751E26F71";
	connect_type "DELTA_GWYE";
	install_type "PADMOUNT";
	coolant_type "UNKNOWN";
	cooling_type "UNKNOWN";
	primary_voltage "115 V";
	secondary_voltage "4160 V";
	power_rating "5000 kVA";
	powerA_rating "1666.67 kVA";
	powerB_rating "1666.67 kVA";
	powerC_rating "1666.67 kVA";
	powerN_rating "0 kVA";
	resistance "0.01 pu*Ohm";
	reactance "0.08 pu*Ohm";
	impedance "0.01+0.08j pu*Ohm";
	resistance1 "0 pu*Ohm";
	reactance1 "0 pu*Ohm";
	impedance1 "0+0j pu*Ohm";
	resistance2 "0 pu*Ohm";
	reactance2 "0 pu*Ohm";
	impedance2 "0+0j pu*Ohm";
	shunt_resistance "1e+09 pu*Ohm";
	shunt_reactance "1e+09 pu*Ohm";
	shunt_impedance "1e+09+1e+09j pu*Ohm";
	core_coil_weight "0 lb";
	tank_fittings_weight "0 lb";
	oil_volume "0 gal";
	rated_winding_time_constant "0 h";
	rated_winding_hot_spot_rise "0 degC";
	rated_top_oil_rise "0 degC";
	no_load_loss "0 pu";
	full_load_loss "0 pu";
	reactance_resistance_ratio "4.5";
	installed_insulation_life "0 h";
	magnetization_location "NONE";
	inrush_saturation_enabled "FALSE";
	L_A "0.2 pu";
	phi_K "1.17 pu";
	phi_M "1 pu";
	I_M "0.01 pu";
	T_D "0.5";
}
object regulator_configuration
{
	name "rc501";
	rng_state "1636807826";
	guid "58A4DA3CFF9EBCDB";
	connect_type "WYE_WYE";
	band_center "2400 V";
	band_width "40 V";
	time_delay "30 s";
	dwell_time "0 s";
	raise_taps "16";
	lower_taps "16";
	current_transducer_ratio "700 pu";
	power_transducer_ratio "20 pu";
	compensator_r_setting_A "3 V";
	compensator_r_setting_B "0 V";
	compensator_r_setting_C "0 V";
	compensator_x_setting_A "7.5 V";
	compensator_x_setting_B "0 V";
	compensator_x_setting_C "0 V";
	CT_phase "A";
	PT_phase "A";
	regulation "0.1 %";
	control_level "INDIVIDUAL";
	Control "OUTPUT_VOLTAGE";
	reverse_flow_control "LOCK_NONE";
	Type "A";
	tap_pos_A "0";
	tap_pos_B "0";
	tap_pos_C "0";
}
object regulator_configuration
{
	name "rc502";
	rng_state "563613512";
	guid "2FBB949285FED2ED";
	connect_type "WYE_WYE";
	band_center "2400 V";
	band_width "40 V";
	time_delay "30 s";
	dwell_time "0 s";
	raise_taps "16";
	lower_taps "16";
	current_transducer_ratio "50 pu";
	power_transducer_ratio "20 pu";
	compensator_r_setting_A "0.4 V";
	compensator_r_setting_B "0 V";
	compensator_r_setting_C "0 V";
	compensator_x_setting_A "0.4 V";
	compensator_x_setting_B "0 V";
	compensator_x_setting_C "0 V";
	CT_phase "A";
	PT_phase "A";
	regulation "0.1 %";
	control_level "INDIVIDUAL";
	Control "OUTPUT_VOLTAGE";
	reverse_flow_control "LOCK_NONE";
	Type "A";
	tap_pos_A "-1";
	tap_pos_B "0";
	tap_pos_C "0";
}
object regulator_configuration
{
	name "rc503";
	rng_state "101929267";
	guid "5E77D71CE5685AA2";
	connect_type "WYE_WYE";
	band_center "2400 V";
	band_width "20 V";
	time_delay "30 s";
	dwell_time "0 s";
	raise_taps "16";
	lower_taps "16";
	current_transducer_ratio "50 pu";
	power_transducer_ratio "20 pu";
	compensator_r_setting_A "0.4 V";
	compensator_r_setting_B "0 V";
	compensator_r_setting_C "0.4 V";
	compensator_x_setting_A "0.4 V";
	compensator_x_setting_B "0 V";
	compensator_x_setting_C "0.4 V";
	CT_phase "CA";
	PT_phase "CA";
	regulation "0.1 %";
	control_level "INDIVIDUAL";
	Control "OUTPUT_VOLTAGE";
	reverse_flow_control "LOCK_NONE";
	Type "A";
	tap_pos_A "0";
	tap_pos_B "0";
	tap_pos_C "-1";
}
object regulator_configuration
{
	name "rc504";
	rng_state "1580723810";
	guid "404A3916B2F5B8DC";
	connect_type "WYE_WYE";
	band_center "2400 V";
	band_width "40 V";
	time_delay "30 s";
	dwell_time "0 s";
	raise_taps "16";
	lower_taps "16";
	current_transducer_ratio "300 pu";
	power_transducer_ratio "20 pu";
	compensator_r_setting_A "0.6 V";
	compensator_r_setting_B "1.4 V";
	compensator_r_setting_C "0.2 V";
	compensator_x_setting_A "1.3 V";
	compensator_x_setting_B "2.6 V";
	compensator_x_setting_C "1.4 V";
	CT_phase "CBA";
	PT_phase "CBA";
	regulation "0.1 %";
	control_level "INDIVIDUAL";
	Control "OUTPUT_VOLTAGE";
	reverse_flow_control "LOCK_NONE";
	Type "A";
	tap_pos_A "8";
	tap_pos_B "1";
	tap_pos_C "5";
}
object node
{
	name "node_3";
	latitude "35.384600";
	longitude "-119.002200";
	groupid "nodevolts";
	rng_state "704877633";
	guid "2EA41FD6AF04B6A0";
	bustype "PQ";
	busflags "HASSOURCE";
	maximum_voltage_error "0.00240178 V";
	voltage_A "0+0j V";
	voltage_B "0+0j V";
	voltage_C "-1165.54+2065.97j V";
	voltage_AB "0+0j V";
	voltage_BC "1165.54-2065.97j V";
	voltage_CA "-1165.54+2065.97j V";
	mean_repair_time "0 s";
	frequency_measure_type "NONE";
	sfm_Tf "0.01 s";
	pll_Kp "10 pu";
	pll_Ki "100 pu";
	measured_angle_A "0 rad";
	measured_frequency_A "60 Hz";
	measured_angle_B "0 rad";
	measured_frequency_B "60 Hz";
	measured_angle_C "0 rad";
	measured_frequency_C "60 Hz";
	measured_frequency "60 Hz";
	service_status "IN_SERVICE";
	service_status_double "-1";
	previous_uptime "-1 min";
	current_uptime "0 min";
	Norton_dynamic "FALSE";
	generator_dynamic "FALSE";
	reset_disabled_island_state "FALSE";
	GFA_enable "FALSE";
	GFA_freq_low_trip "59.5 Hz";
	GFA_freq_high_trip "60.5 Hz";
	GFA_volt_low_trip "0.8 pu";
	GFA_volt_high_trip "1.2 pu";
	GFA_reconnect_time "300 s";
	GFA_freq_disconnect_time "0.2 s";
	GFA_volt_disconnect_time "0.2 s";
	GFA_status "TRUE";
	GFA_trip_method "NONE";
	voltage_violation_threshold "0.05 pu";
	undervoltage_violation_threshold "0 pu";
	overvoltage_violation_threshold "0 pu";
	voltage_fluctuation_threshold "0.03 pu";
	DER_value "0+0j VA";
	phases "CN";
	nominal_voltage "2401.78 V";
	violation_detected "NONE";
}
object node
{
	name "node_8";
	latitude "35.385283";
	longitude "-119.000517";
	groupid "nodevolts";
	rng_state "1358580979";
	guid "608FD349512FCF7";
	bustype "PQ";
	busflags "HASSOURCE";
	maximum_voltage_error "0.00240178 V";
	voltage_A "2363.89-18.4887j V";
	voltage_B "-1195.29-2028.01j V";
	voltage_C "-1132.32+2056.81j V";
	voltage_AB "3559.19+2009.52j V";
	voltage_BC "-62.9697-4084.82j V";
	voltage_CA "-3496.22+2075.3j V";
	mean_repair_time "0 s";
	frequency_measure_type "NONE";
	sfm_Tf "0.01 s";
	pll_Kp "10 pu";
	pll_Ki "100 pu";
	measured_angle_A "0 rad";
	measured_frequency_A "60 Hz";
	measured_angle_B "0 rad";
	measured_frequency_B "60 Hz";
	measured_angle_C "0 rad";
	measured_frequency_C "60 Hz";
	measured_frequency "60 Hz";
	service_status "IN_SERVICE";
	service_status_double "-1";
	previous_uptime "-1 min";
	current_uptime "0 min";
	Norton_dynamic "FALSE";
	generator_dynamic "FALSE";
	reset_disabled_island_state "FALSE";
	GFA_enable "FALSE";
	GFA_freq_low_trip "59.5 Hz";
	GFA_freq_high_trip "60.5 Hz";
	GFA_volt_low_trip "0.8 pu";
	GFA_volt_high_trip "1.2 pu";
	GFA_reconnect_time "300 s";
	GFA_freq_disconnect_time "0.2 s";
	GFA_volt_disconnect_time "0.2 s";
	GFA_status "TRUE";
	GFA_trip_method "NONE";
	voltage_violation_threshold "0.05 pu";
	undervoltage_violation_threshold "0 pu";
	overvoltage_violation_threshold "0 pu";
	voltage_fluctuation_threshold "0.03 pu";
	DER_value "0+0j VA";
	phases "ABCN";
	nominal_voltage "2401.78 V";
	violation_detected "NONE";
}
object node
{
	name "node_13";
	latitude "35.385283";
	longitude "-118.999517";
	groupid "nodevolts";
	rng_state "1624379149";
	guid "C52E9DBEAF286B76";
	bustype "PQ";
	busflags "HASSOURCE";
	maximum_voltage_error "0.00240178 V";
	voltage_A "2340.34-34.1089j V";
	voltage_B "-1198.14-2015.98j V";
	voltage_C "-1114.33+2045.92j V";
	voltage_AB "3538.48+1981.87j V";
	voltage_BC "-83.8193-4061.9j V";
	voltage_CA "-3454.66+2080.03j V";
	mean_repair_time "0 s";
	frequency_measure_type "NONE";
	sfm_Tf "0.01 s";
	pll_Kp "10 pu";
	pll_Ki "100 pu";
	measured_angle_A "0 rad";
	measured_frequency_A "60 Hz";
	measured_angle_B "0 rad";
	measured_frequency_B "60 Hz";
	measured_angle_C "0 rad";
	measured_frequency_C "60 Hz";
	measured_frequency "60 Hz";
	service_status "IN_SERVICE";
	service_status_double "-1";
	previous_uptime "-1 min";
	current_uptime "0 min";
	Norton_dynamic "FALSE";
	generator_dynamic "FALSE";
	reset_disabled_island_state "FALSE";
	GFA_enable "FALSE";
	GFA_freq_low_trip "59.5 Hz";
	GFA_freq_high_trip "60.5 Hz";
	GFA_volt_low_trip "0.8 pu";
	GFA_volt_high_trip "1.2 pu";
	GFA_reconnect_time "300 s";
	GFA_freq_disconnect_time "0.2 s";
	GFA_volt_disconnect_time "0.2 s";
	GFA_status "TRUE";
	GFA_trip_method "NONE";
	voltage_violation_threshold "0.05 pu";
	undervoltage_violation_threshold "0 pu";
	overvoltage_violation_threshold "0 pu";
	voltage_fluctuation_threshold "0.03 pu";
	DER_value "0+0j VA";
	phases "ABCN";
	nominal_voltage "2401.78 V";
	violation_detected "NONE";
}
object substation
{
	name "node_14";
	latitude "35.387067";
	longitude "-119.000517";
	groupid "nodevolts";
	rng_state "2128236579";
	guid "29EEF4316DA20FC3";
	zero_sequence_voltage "0+0j V";
	positive_sequence_voltage "0+0j V";
	negative_sequence_voltage "0+0j V";
	base_power "100 VA";
	power_convergence_value "1 VA";
	reference_phase "PHASE_A";
	transmission_level_constant_power_load "0+0j VA";
	transmission_level_constant_current_load "0+0j A";
	transmission_level_constant_impedance_load "0+0j Ohm";
	distribution_load "0+0j VA";
	distribution_power_A "0+0j VA";
	distribution_power_B "0+0j VA";
	distribution_power_C "0+0j VA";
	distribution_voltage_A "2401.78+0j V";
	distribution_voltage_B "0+0j V";
	distribution_voltage_C "0+0j V";
	distribution_voltage_AB "2401.78+0j V";
	distribution_voltage_BC "0+0j V";
	distribution_voltage_CA "-2401.78+0j V";
	distribution_current_A "1.50454e-12+0.000515667j A";
	distribution_current_B "0+0j A";
	distribution_current_C "0+0j A";
	distribution_real_energy "0 Wh";
	bustype "SWING";
	busflags "HASSOURCE";
	maximum_voltage_error "0.00240178 V";
	voltage_A "2401.78+0j V";
	voltage_B "0+0j V";
	voltage_C "0+0j V";
	voltage_AB "2401.78+0j V";
	voltage_BC "0+0j V";
	voltage_CA "-2401.78+0j V";
	mean_repair_time "0 s";
	frequency_measure_type "NONE";
	sfm_Tf "0.01 s";
	pll_Kp "10 pu";
	pll_Ki "100 pu";
	measured_angle_A "0 rad";
	measured_frequency_A "60 Hz";
	measured_angle_B "0 rad";
	measured_frequency_B "60 Hz";
	measured_angle_C "0 rad";
	measured_frequency_C "60 Hz";
	measured_frequency "60 Hz";
	service_status "IN_SERVICE";
	service_status_double "-1";
	previous_uptime "-1 min";
	current_uptime "0 min";
	Norton_dynamic "FALSE";
	generator_dynamic "FALSE";
	reset_disabled_island_state "FALSE";
	GFA_enable "FALSE";
	GFA_freq_low_trip "59.5 Hz";
	GFA_freq_high_trip "60.5 Hz";
	GFA_volt_low_trip "0.8 pu";
	GFA_volt_high_trip "1.2 pu";
	GFA_reconnect_time "300 s";
	GFA_freq_disconnect_time "0.2 s";
	GFA_volt_disconnect_time "0.2 s";
	GFA_status "TRUE";
	GFA_trip_method "NONE";
	voltage_violation_threshold "0.05 pu";
	undervoltage_violation_threshold "0 pu";
	overvoltage_violation_threshold "0 pu";
	voltage_fluctuation_threshold "0.03 pu";
	DER_value "0+0j VA";
	phases "AN";
	nominal_voltage "2401.78 V";
	violation_detected "NONE";
}
object meter
{
	name "substation_meter";
	parent "node_14";
	latitude "35.387067";
	longitude "-119.000517";
	groupid "nodevolts";
	rng_state "784558821";
	guid "773A93D4C85E8042";
	measured_real_energy "0 Wh";
	measured_real_energy_delta "0 Wh";
	measured_reactive_energy "0 VAh";
	measured_reactive_energy_delta "0 VAh";
	measured_energy_delta_timestep "-1 s";
	measured_power "0+0j VA";
	measured_power_A "0+0j VA";
	measured_power_B "0+0j VA";
	measured_power_C "0+0j VA";
	measured_demand "0 W";
	measured_real_power "0 W";
	measured_reactive_power "0 VAr";
	meter_power_consumption "0+0j VA";
	measured_voltage_A "2401.78+0j V";
	measured_voltage_B "0+0j V";
	measured_voltage_C "0+0j V";
	measured_voltage_AB "2401.78+0j V";
	measured_voltage_BC "0+0j V";
	measured_voltage_CA "-2401.78+0j V";
	measured_real_max_voltage_in_interval_A "0";
	measured_real_max_voltage_in_interval_B "0";
	measured_real_max_voltage_in_interval_C "0";
	measured_reactive_max_voltage_in_interval_A "0";
	measured_reactive_max_voltage_in_interval_B "0";
	measured_reactive_max_voltage_in_interval_C "0";
	measured_real_max_voltage_in_interval_AB "0";
	measured_real_max_voltage_in_interval_BC "0";
	measured_real_max_voltage_in_interval_CA "0";
	measured_reactive_max_voltage_in_interval_AB "0";
	measured_reactive_max_voltage_in_interval_BC "0";
	measured_reactive_max_voltage_in_interval_CA "0";
	measured_real_min_voltage_in_interval_A "0";
	measured_real_min_voltage_in_interval_B "0";
	measured_real_min_voltage_in_interval_C "0";
	measured_reactive_min_voltage_in_interval_A "0";
	measured_reactive_min_voltage_in_interval_B "0";
	measured_reactive_min_voltage_in_interval_C "0";
	measured_real_min_voltage_in_interval_AB "0";
	measured_real_min_voltage_in_interval_BC "0";
	measured_real_min_voltage_in_interval_CA "0";
	measured_reactive_min_voltage_in_interval_AB "0";
	measured_reactive_min_voltage_in_interval_BC "0";
	measured_reactive_min_voltage_in_interval_CA "0";
	measured_avg_voltage_mag_in_interval_A "0";
	measured_avg_voltage_mag_in_interval_B "0";
	measured_avg_voltage_mag_in_interval_C "0";
	measured_avg_voltage_mag_in_interval_AB "0";
	measured_avg_voltage_mag_in_interval_BC "0";
...